60

 C                  1.18430145    0.38480287    3.33172983
 C                  0.73193855   -1.00742699    3.33172983
 C                  1.42430043   -1.96038137    2.60385848
 C                  2.60863188   -1.57553948    1.83421174
 C                  3.03650639   -0.25867713    1.83421174
 C                  2.30456651    0.74879905    2.60385848
 C                 -0.00000000    1.24524824    3.33172983
 C                 -1.18430145    0.38480287    3.33172983
 C                 -0.73193855   -1.00742699    3.33172983
 C                 -1.42430043   -1.96038137    2.60385848
 C                  0.69231551   -2.96782482    1.83421174
 C                  2.60860250   -2.34514202    0.58894422
 C                  3.03646511   -1.75623966   -0.58894422
 C                  3.48884365   -0.36396167   -0.58894422
 C                  3.48884365    0.36396167    0.58894422
 C                  3.03646511    1.75623966    0.58894422
 C                  2.30453867    1.99408787    1.83421174
 C                  1.18434865    2.80795356    1.83421174
 C                 -0.00000000    2.42316463    2.60385848
 C                 -2.30456651    0.74879905    2.60385848
 C                 -2.30453867    1.99408787    1.83421174
 C                 -1.18434865    2.80795356    1.83421174
 C                 -0.73196386    3.43055783    0.58894422
 C                  0.73196386    3.43055783    0.58894422
 C                  1.42426010    3.20561714   -0.58894422
 C                  2.60860250    2.34514202   -0.58894422
 C                  2.60863188    1.57553948   -1.83421174
 C                  3.03650639    0.25867713   -1.83421174
 C                  1.42426010   -3.20561714    0.58894422
 C                 -0.00000000   -1.24524824   -3.33172983
 C                 -0.00000000   -2.42316463   -2.60385848
 C                 -1.18434865   -2.80795356   -1.83421174
 C                 -2.30453867   -1.99408787   -1.83421174
 C                 -2.30456651   -0.74879905   -2.60385848
 C                 -0.73193855    1.00742699   -3.33172983
 C                  0.73193855    1.00742699   -3.33172983
 C                  1.18430145   -0.38480287   -3.33172983
 C                  2.30456651   -0.74879905   -2.60385848
 C                  2.30453867   -1.99408787   -1.83421174
 C                  1.18434865   -2.80795356   -1.83421174
 C                 -0.73196386   -3.43055783   -0.58894422
 C                 -1.42426010   -3.20561714    0.58894422
 C                 -2.60860250   -2.34514202    0.58894422
 C                 -3.03646511   -1.75623966   -0.58894422
 C                 -3.48884365   -0.36396167   -0.58894422
 C                 -3.03650639    0.25867713   -1.83421174
 C                 -2.60863188    1.57553948   -1.83421174
 C                 -1.42430043    1.96038137   -2.60385848
 C                  1.42430043    1.96038137   -2.60385848
 C                  0.69231551    2.96782482   -1.83421174
 C                 -0.69231551    2.96782482   -1.83421174
 C                 -1.42426010    3.20561714   -0.58894422
 C                 -2.60860250    2.34514202   -0.58894422
 C                 -3.03646511    1.75623966    0.58894422
 C                 -3.48884365    0.36396167    0.58894422
 C                 -3.03650639   -0.25867713    1.83421174
 C                 -2.60863188   -1.57553948    1.83421174
 C                  0.73196386   -3.43055783   -0.58894422
 C                 -0.69231551   -2.96782482    1.83421174
 C                 -1.18430145   -0.38480287   -3.33172983